12
benzene
C      1.205074    -0.695750     0.000000
C      0.000000    -1.391500     0.000000
C     -1.205074    -0.695750     0.000000
C     -1.205074     0.695750     0.000000
C      0.000000     1.391500     0.000000
C      1.205074     0.695750     0.000000
H      2.140382    -1.235750     0.000000
H      0.000000    -2.471500     0.000000
H     -2.140382    -1.235750     0.000000
H     -2.140382     1.235750     0.000000
H      0.000000     2.471500     0.000000
H      2.140382     1.235750     0.000000
